/*--------------------------------*- C++ -*----------------------------------*\
| =========                 |                                                 |
| \\      /  F ield         | OpenFOAM: The Open Source CFD Toolbox           |
|  \\    /   O peration     | Version:  v2312                                 |
|   \\  /    A nd           | Website:  www.openfoam.com                      |
|    \\/     M anipulation  |                                                 |
\*---------------------------------------------------------------------------*/
FoamFile
{
    version     2.0;
    format      ascii;
    class       dictionary;
    object      changeDictionaryDict;
}
// * * * * * * * * * * * * * * * * * * * * * * * * * * * * * * * * * * * * * //
dictionaryReplacement
{
p
{
internalField uniform 0;
}
U
{
internalField uniform (0 0 0);
boundaryField
{
topWall
{
type slip;
}
}
}
k
{
internalField uniform 0;
boundaryField
{
topWall
{
type zeroGradient;
}
}
}
nut
{
internalField uniform 0;
}
}


// ************************************************************************* //
