/*--------------------------------*- C++ -*----------------------------------*\
| =========                 |                                                 |
| \\      /  F ield         | OpenFOAM: The Open Source CFD Toolbox           |
|  \\    /   O peration     | Version:  v2312                                 |
|   \\  /    A nd           | Website:  www.openfoam.com                      |
|    \\/     M anipulation  |                                                 |
\*---------------------------------------------------------------------------*/
FoamFile
{
    version     2.0;
    format      ascii;
    class       dictionary;
    object      fvOptions;
}
// * * * * * * * * * * * * * * * * * * * * * * * * * * * * * * * * * * * * * //

momentumSource
{
type pressureGradientExplicitSource;
active off; //on/off switch
selectionMode all; //cellSet // points //cellZone
pressureGradientExplicitSourceCoeffs
{
fieldNames (U);
Ubar ( 0.1335 0 0 );
}
}
porosity
{
type explicitPorositySource;
active true;
selectionMode cellZone;
cellZone bed;
explicitPorositySourceCoeffs
{
type DarcyForchheimer;
DarcyForchheimerCoeffs
{
d d [0 -2 0 0 0 0 0] (1e12 1e12 1e12);
f f [0 -1 0 0 0 0 0] (1e12 1e12 1e12);
coordinateSystem
{
e1 (1 0 0);
e2 (0 1 0);
}
}
}
}


// ************************************************************************* //
