/*--------------------------------*- C++ -*----------------------------------*\
| =========                 |                                                 |
| \\      /  F ield         | OpenFOAM: The Open Source CFD Toolbox           |
|  \\    /   O peration     | Version:  2312                                  |
|   \\  /    A nd           | Website:  www.openfoam.com                      |
|    \\/     M anipulation  |                                                 |
\*---------------------------------------------------------------------------*/
FoamFile
{
    version     2.0;
    format      ascii;
    arch        "LSB;label=32;scalar=64";
    class       polyBoundaryMesh;
    location    "constant/polyMesh";
    object      boundary;
}
// * * * * * * * * * * * * * * * * * * * * * * * * * * * * * * * * * * * * * //

10
(
    bottomWall
    {
        type            wall;
        inGroups        1(wall);
        nFaces          2400;
        startFace       423600;
    }
    topWall
    {
        type            patch;
        nFaces          2400;
        startFace       426000;
    }
    sides1_half0
    {
        type            cyclic;
        inGroups        1(cyclic);
        nFaces          1500;
        startFace       428400;
        matchTolerance  0.0001;
        transform       unknown;
        neighbourPatch  sides1_half1;
    }
    sides1_half1
    {
        type            cyclic;
        inGroups        1(cyclic);
        nFaces          1500;
        startFace       429900;
        matchTolerance  0.0001;
        transform       unknown;
        neighbourPatch  sides1_half0;
    }
    sides2_half0
    {
        type            cyclic;
        inGroups        1(cyclic);
        nFaces          2100;
        startFace       431400;
        matchTolerance  0.0001;
        transform       unknown;
        neighbourPatch  sides2_half1;
    }
    sides2_half1
    {
        type            cyclic;
        inGroups        1(cyclic);
        nFaces          2100;
        startFace       433500;
        matchTolerance  0.0001;
        transform       unknown;
        neighbourPatch  sides2_half0;
    }
    inout1_half0
    {
        type            cyclic;
        inGroups        1(cyclic);
        nFaces          1000;
        startFace       435600;
        matchTolerance  0.0001;
        transform       unknown;
        neighbourPatch  inout1_half1;
    }
    inout1_half1
    {
        type            cyclic;
        inGroups        1(cyclic);
        nFaces          1000;
        startFace       436600;
        matchTolerance  0.0001;
        transform       unknown;
        neighbourPatch  inout1_half0;
    }
    inout2_half0
    {
        type            cyclic;
        inGroups        1(cyclic);
        nFaces          1400;
        startFace       437600;
        matchTolerance  0.0001;
        transform       unknown;
        neighbourPatch  inout2_half1;
    }
    inout2_half1
    {
        type            cyclic;
        inGroups        1(cyclic);
        nFaces          1400;
        startFace       439000;
        matchTolerance  0.0001;
        transform       unknown;
        neighbourPatch  inout2_half0;
    }
)

// ************************************************************************* //
